LAMMPS (15 Aug 2014)
#This file should be altered by the runner to create a valid LAMMPS input script
#with the goal of calculating the melting temperature

#TODO:
#Include multi-species stufffffff
#should region be variable or fixed?

#Variables
#timestep        0.002
variable        annealT equal 2300
variable	highT equal 5000
variable	annealP equal 0.0
variable	annealTime equal 10000

#Units/Boundary
units           metal
boundary        p p p
atom_style      atomic

#Arrange the atoms
lattice         bcc 2.866
Lattice spacing in x,y,z = 2.866 2.866 2.866
region          box block -4 4 -4 4 -15 15  #-5 5 -5 5 -30 30
create_box      1 box
Created orthogonal box = (-11.464 -11.464 -42.99) to (11.464 11.464 42.99)
create_atoms    1 box
Created 3840 atoms
mass 		1 1.0

#Interactions
pair_style      kim LAMMPSvirial EAM_Dynamo_Ackland_Bacon_Fe__MO_142799717516_001
pair_coeff      * * Fe

#Setup the Solid and Liquid Regions
region          1 block -6 6 -6 6 INF -0.01
group           solidzone region 1
1920 atoms in group solidzone
region          2 block -6 6 -6 6 -0.01 INF
group           meltzone  region 2
1920 atoms in group meltzone

#Setup the output
thermo_style	custom step temp press vol etotal lx
thermo          100

#Initialize both halves
velocity        all create 10 4928459 dist gaussian
fix             1 all npt temp 10 2300 0.1 iso 0 0 1.0
run             1000
Step Temp Press Volume TotEng Lx
0           10    1049.4256      45199.1   -16568.471       22.928
Averages over the last 6 of 11 rows, steps 500 to 1000:
Temp Press Volume TotEng Lx
25.306 -99.966 45267.1 -16548.1 22.9395
Loop time of 2.51712 on 3 procs for 1000 steps with 3840 atoms

Pair  time (%) = 1.95565 (77.6938)
Neigh time (%) = 0 (0)
Comm  time (%) = 0.358754 (14.2526)
Outpt time (%) = 0.00062712 (0.0249142)
Other time (%) = 0.202092 (8.02869)

unfix   1

fix             1 all npt temp 2300 2300 0.1 iso 0 0 1.0
run             4000#10000
Step Temp Press Volume TotEng Lx
1000    43.717303   -2074.3129    45343.879   -16529.742    22.952454
Averages over the last 21 of 41 rows, steps 3000 to 5000:
Temp Press Volume TotEng Lx
2311.39 -311.769 48988.2 -14045 23.5515
Loop time of 14.4652 on 3 procs for 4000 steps with 3840 atoms

Pair  time (%) = 10.3896 (71.8248)
Neigh time (%) = 1.44619 (9.99777)
Comm  time (%) = 1.84632 (12.7639)
Outpt time (%) = 0.00207814 (0.0143665)
Other time (%) = 0.781004 (5.3992)

unfix   1

#Melt the liquid half (solid remains fixed)
fix             1 meltzone npt temp 2300 5000 0.1 iso 0 0 1.0
run             5000
Step Temp Press Volume TotEng Lx
5000    2204.4266    3117.1272    48750.354   -14135.885    23.513404
Averages over the last 26 of 51 rows, steps 7500 to 10000:
Temp Press Volume TotEng Lx
4308.99 -222.281 54939 -11384.3 24.4683
Loop time of 19.943 on 3 procs for 5000 steps with 3840 atoms

Pair  time (%) = 13.4254 (67.3187)
Neigh time (%) = 2.81742 (14.1274)
Comm  time (%) = 2.84223 (14.2518)
Outpt time (%) = 0.0023133 (0.0115995)
Other time (%) = 0.85566 (4.29053)

unfix   1

#Quench the liquid half (solid remains fixed)
fix             1 meltzone npt temp 5000 2300 0.1 iso 0 0 1.0
run             5000
Step Temp Press Volume TotEng Lx
10000    5005.8057   -4817.5108    56484.681   -10712.906    24.696371
Averages over the last 26 of 51 rows, steps 12500 to 15000:
Temp Press Volume TotEng Lx
3087.15 -320.922 52097.5 -12730 24.0388
Loop time of 20.0114 on 3 procs for 5000 steps with 3840 atoms

Pair  time (%) = 13.4401 (67.1621)
Neigh time (%) = 2.85005 (14.2421)
Comm  time (%) = 2.8662 (14.3229)
Outpt time (%) = 0.00245786 (0.0122823)
Other time (%) = 0.852615 (4.26065)

unfix   1

#Sample the configuration before annealing, to get a snapshot of the solid and liquid
compute   	PE all pe/atom
dump            atmelt all custom 1 output/initial.dump id type xs ys zs c_PE
fix             1 all nph iso 0 0 1.0
run		1
Step Temp Press Volume TotEng Lx
15000    2468.6328   -4396.3826    50636.975   -13503.002    23.812893
Loop time of 0.00985392 on 3 procs for 1 steps with 3840 atoms

Pair  time (%) = 0.00281469 (28.5642)
Neigh time (%) = 0 (0)
Comm  time (%) = 0.000550667 (5.58831)
Outpt time (%) = 0.00628368 (63.7683)
Other time (%) = 0.000204881 (2.07918)

uncompute 	PE
undump		atmelt
unfix 	1

#Anneal both halves
fix             1 all nph iso 0 0 1.0
run             10000
Step Temp Press Volume TotEng Lx
15001    2470.9006   -4705.3757    50636.962   -13503.252    23.812891
Averages over the last 51 of 102 rows, steps 20100 to 25001:
Temp Press Volume TotEng Lx
2322.96 14.2192 50996 -13499.4 23.869
Loop time of 39.5221 on 3 procs for 10000 steps with 3840 atoms

Pair  time (%) = 27.0327 (68.3991)
Neigh time (%) = 5.52989 (13.9919)
Comm  time (%) = 5.25252 (13.2901)
Outpt time (%) = 0.00467054 (0.0118175)
Other time (%) = 1.70228 (4.30715)

#Collect hundreds of configs and PE for deep analysis of final state:
#  MSD, Coordination, TOP, BOP, RDF...?
compute   	PE all pe/atom
dump		test all custom 1 output/final.dump id type xs ys zs c_PE
run		100
Step Temp Press Volume TotEng Lx
25001    2313.8469   -602.64349    51004.242   -13498.627    23.870326
Loop time of 1.05831 on 3 procs for 100 steps with 3840 atoms

Pair  time (%) = 0.293929 (27.7735)
Neigh time (%) = 0.0571957 (5.40445)
Comm  time (%) = 0.04971 (4.69713)
Outpt time (%) = 0.609803 (57.6206)
Other time (%) = 0.04767 (4.50436)
